-------------------------------------------------------
          Amber 12 SANDER                              2012
          -------------------------------------------------------

  [-O]verwriting output

File Assignments:

 Here is the input file:

Production
 &cntrl
  imin=0,
  ntx=5,
  irest=1,
  nstlim=30000,
  dt=0.002,
  ntf=2,
  ntc=2,
  temp0=300.0,
  ntpr=100,
  ntwx=100,
  cut=8.0,
  ntb=2,
  ntp=1,
  ntt=3,
  gamma_ln=2.0,
  ig=-1,
 /

--------------------------------------------------------------------------------
   1.  RESOURCE   USE:
--------------------------------------------------------------------------------

 getting new box info from bottom of inpcrd

 NATOM  =    1912 NTYPES =       9 NBONH =    1902 MBONA  =       9
 NTHETH =      25 MTHETA =      11 NPHIH =      43 MPHIA  =      24
 NHPARM =       0 NPARM  =       0 NNB   =    2619 NRES   =     633
 NBONA  =       9 NTHETA =      11 NPHIA =      24 NUMBND =      10
 NUMANG =      16 NPTRA  =      19 NATYP =       9 NPHB   =       1
 IFBOX  =       1 NMXRS  =      10 IFCAP =       0 NEXTRA =       0
 NCOPY  =       0

     BOX TYPE: RECTILINEAR
Note: ig = -1. Setting random seed based on wallclock time in microseconds
      and disabling the synchronization of random numbers between tasks
      to improve performance.

--------------------------------------------------------------------------------
   2.  CONTROL  DATA  FOR  THE  RUN
--------------------------------------------------------------------------------

ACE

General flags:
     imin    =       0, nmropt  =       0

Nature and format of input:
     ntx     =       5, irest   =       1, ntrx    =       1

Nature and format of output:
     ntxo    =       1, ntpr    =     100, ntrx    =       1, ntwr    =     500
     iwrap   =       0, ntwx    =     100, ntwv    =       0, ntwe    =       0
     ioutfm  =       0, ntwprt  =       0, idecomp =       0, rbornstat=      0

Potential function:
     ntf     =       2, ntb     =       2, igb     =       0, nsnb    =      25
     ipol    =       0, gbsa    =       0, iesp    =       0
     dielc   =   1.00000, cut     =   8.00000, intdiel =   1.00000

Frozen or restrained atoms:
     ibelly  =       0, ntr     =       0

Molecular dynamics:
     nstlim  =     30000, nscm    =      1000, nrespa  =         1
     t       =   0.00000, dt      =   0.00200, vlimit  =  20.00000

Langevin dynamics temperature regulation:
     ig      =  346524
     temp0   = 300.00000, tempi   =   0.00000, gamma_ln=   2.00000

Pressure regulation:
     ntp     =       1
     pres0   =   1.00000, comp    =  44.60000, taup    =   1.00000

SHAKE:
     ntc     =       2, jfastw  =       0
     tol     =   0.00001

Ewald parameters:
     verbose =       0, ew_type =       0, nbflag  =       1, use_pme =       1
     vdwmeth =       1, eedmeth =       1, netfrc  =       1
     Box X =   31.398   Box Y =   34.100   Box Z =   29.273
     Alpha =   90.000   Beta  =   90.000   Gamma =   90.000
     NFFT1 =   32       NFFT2 =   36       NFFT3 =   30
     Cutoff=    8.000   Tol   =0.100E-04
     Ewald Coefficient =  0.34864
     Interpolation order =    4

--------------------------------------------------------------------------------
   3.  ATOMIC COORDINATES AND VELOCITIES
--------------------------------------------------------------------------------

ACE
 begin time read from input coords =    20.000 ps

 Number of triangulated 3-point waters found:      630

     Sum of charges from parm topology file =  -0.00000000
     Forcing neutrality...

--------------------------------------------------------------------------------
   4.  RESULTS
 NSTEP =      100   TIME(PS) =      20.200  TEMP(K) =   301.64  PRESS =  -206.2
 Etot   =     -4537.2935  EKtot   =      1149.0810  EPtot      =     -5686.3745
 BOND   =         1.8106  ANGLE   =        11.9920  DIHED      =        11.7740
 1-4 NB =         3.0591  1-4 EEL =        47.9065  VDWAALS    =       888.5356
 EELEC  =     -6651.4524  EHBOND  =         0.0000  RESTRAINT  =         0.0000
 EKCMT  =       583.2943  VIRIAL  =       722.2499  VOLUME     =     31208.2618
                                                    Density    =         0.6116
 Ewald error estimate:   0.3079E-03
 ------------------------------------------------------------------------------

      A V E R A G E S   O V E R   30000 S T E P S

 NSTEP =    30000   TIME(PS) =      80.000  TEMP(K) =   300.19  PRESS =  -180.5
 Etot   =     -4817.6581  EKtot   =      1143.5739  EPtot      =     -5961.2320
 BOND   =         3.1261  ANGLE   =         8.8629  DIHED      =        11.5263
 1-4 NB =         3.1108  1-4 EEL =        46.5667  VDWAALS    =       879.7262
 EELEC  =     -6914.1510  EHBOND  =         0.0000  RESTRAINT  =         0.0000
 EKCMT  =       566.0329  VIRIAL  =       662.8606  VOLUME     =     21661.7052
                                                    Density    =         0.9016
 Ewald error estimate:   0.2150E-03
 ------------------------------------------------------------------------------

      R M S  F L U C T U A T I O N S

 NSTEP =    30000   TIME(PS) =      80.000  TEMP(K) =     6.76  PRESS =   417.2
 Etot   =       118.9390  EKtot   =        25.7598  EPtot      =       117.4128
 BOND   =         1.4280  ANGLE   =         2.3022  DIHED      =         1.2345
 1-4 NB =         0.7248  1-4 EEL =         2.1639  VDWAALS    =        34.8678
 EELEC  =       129.6390  EHBOND  =         0.0000  RESTRAINT  =         0.0000
 EKCMT  =        18.6379  VIRIAL  =       200.2143  VOLUME     =      3602.7236
                                                    Density    =         0.1239
 Ewald error estimate:   0.1610E-03
 ------------------------------------------------------------------------------
